/*--------------------------------*- C++ -*----------------------------------*\
  =========                 |
  \\      /  F ield         | OpenFOAM: The Open Source CFD Toolbox
   \\    /   O peration     | Website:  https://openfoam.org
    \\  /    A nd           | Version:  8
     \\/     M anipulation  |
\*---------------------------------------------------------------------------*/
FoamFile
{
    version     2.0;
    format      ascii;
    class       volScalarField;
    location    "0/water";
    object      cellToRegion;
}
// * * * * * * * * * * * * * * * * * * * * * * * * * * * * * * * * * * * * * //

dimensions      [0 0 0 0 0 0 0];

internalField   uniform 0;

boundaryField
{
    outlet
    {
        type            zeroGradient;
    }
    inlet
    {
        type            zeroGradient;
    }
    outer_1
    {
        type            zeroGradient;
    }
    outer_2
    {
        type            zeroGradient;
    }
    bottom_1
    {
        type            zeroGradient;
    }
    bottom_2
    {
        type            zeroGradient;
    }
    bottom_3
    {
        type            zeroGradient;
    }
    water_to_pipe
    {
        type            calculated;
        value           uniform 0;
    }
}


// ************************************************************************* //
